tests/data/power_flow/pandapower/components/asymmetric/pandapower-asymmetric-asym_gen/pgm_asym_output.json
{
  "asym_gen": [
    {
      "id": 6,
      "energized": 1,
      "p": [
        10000.0,
        9000.0,
        10500.0
      ],
      "q": [
        2000.0,
        1500.0,
        2500.0
      ],
      "i": [
        1.6820545969651934,
        1.5049416953605101,
        1.780261185123284
      ],
      "s": [
        10198.03902718557,
        9124.14379544733,
        10793.51657246145
      ],
      "pf": [
        0.9805806756909201,
        0.9863939238321437,
        0.972806214685367
      ]
    },
    {
      "id": 7,
      "energized": 1,
      "p": [
        0.0,
        0.0,
        0.0
      ],
      "q": [
        0.0,
        0.0,
        0.0
      ],
      "i": [
        0.0,
        0.0,
        0.0
      ],
      "s": [
        0.0,
        0.0,
        0.0
      ],
      "pf": [
        0.0,
        0.0,
        0.0
      ]
    }
  ],
  "line": [
    {
      "id": 3,
      "energized": 1,
      "loading": 0.002892668996619303,
      "p_from": [
        -9998.908850946009,
        -8999.089239692175,
        -10498.78457274598
      ],
      "q_from": [
        -13545.753862284006,
        -13045.788222278883,
        -14045.725121977996
      ],
      "i_from": [
        2.77729191206457,
        2.6143309779297454,
        2.8926689966193027
      ],
      "s_from": [
        16836.437447010827,
        15848.539285514418,
        17535.87385068371
      ],
      "p_to": [
        9999.999999991995,
        8999.999999978874,
        10500.00000003064
      ],
      "q_to": [
        1999.9999999839104,
        1500.0000000049095,
        2499.999999995417
      ],
      "i_to": [
        1.6820545969633784,
        1.5049416953572066,
        1.7802611851280254
      ],
      "s_to": [
        10198.039027174564,
        9124.1437954273,
        10793.516572490198
      ]
    }
  ],
  "node": [
    {
      "id": 1,
      "energized": 1,
      "u_pu": [
        1.0000000000000004,
        1.0000000000000002,
        1.0000000000000004
      ],
      "u": [
        6062.1778264910745,
        6062.177826491073,
        6062.1778264910745
      ],
      "u_angle": [
        2.4554545412504927e-16,
        -2.0943951023931953,
        2.094395102393196
      ]
    },
    {
      "id": 2,
      "energized": 1,
      "u_pu": [
        1.0001103222511147,
        1.000100799854662,
        1.0001164436974395
      ],
      "u": [
        6062.846619595548,
        6062.788893134918,
        6062.883728891724
      ],
      "u_angle": [
        1.537583564033781e-06,
        -2.094395604657734,
        2.0943959592936685
      ]
    }
  ],
  "source": [
    {
      "id": 4,
      "energized": 1,
      "p": [
        -9617.1795566201,
        -9485.18913622415,
        -17194.336215321404
      ],
      "q": [
        -13915.086456587946,
        -6854.648445952003,
        -15880.014961725772
      ],
      "i": [
        2.790263800068947,
        1.9304577601549582,
        3.8609155203099164
      ],
      "s": [
        16915.07533883869,
        11702.778228589004,
        23405.55645717802
      ],
      "pf": [
        -0.5685567083782418,
        -0.810507466769946,
        -0.7346262519662609
      ]
    }
  ]
}